LAMMPS (11 Mar 2013)
# energy minimization for particulate system

units lj
atom_style molecular
neighbor 0.0 bin
neigh_modify delay 0 check no one 50000 page 500000
communicate single vel yes
read_data coord.1per
  orthogonal box = (0 0 0) to (17.534 17.534 17.534)
  4125 atoms

group medium type 1
4000 atoms in group medium
group COM type 3
25 atoms in group COM
group NP type 2 type 3
125 atoms in group NP
neigh_modify exclude molecule NP

fix 1 NP rigid molecule
25 rigid bodies with 125 atoms
fix 2 medium nve

compute stream medium temp/deform
compute allCorrected all temp/deform

#pair_style hybrid/overlay lj/cut 2.5 dpd/tstat 1.0 1.0 2.5 482789
#pair_coeff 1 1 lj/cut 1.0 1.0 2.5
#pair_coeff 1 2*3 lj/cut 1.0 1.0
#pair_coeff 2*3 2*3 lj/cut 1.0 1.0 1.12246
#pair_coeff * * dpd/tstat 1.0

pair_style soft 2.5
pair_coeff * * 0.0
variable prefactor equal ramp(0,30)
fix 3 all adapt 1 pair soft a * * v_prefactor

minimize 1e-6 1.0e-6 100000 100000
Step Temp E_pair E_mol TotEng Press
0            0            0            0            0            0
Loop time of 0.018769 on 1 procs for 1 steps with 4125 atoms

Minimization stats:
  Stopping criterion = search direction is not downhill
  Energy initial, next-to-last, final =
  Force two-norm initial, final = 0 0
  Force max component initial, final = 0 0
  Final line search alpha, max atom move = 0 0
  Iterations, force evaluations = 1 0

Pair  time (%) = 0.0184209 (98.1454)
Bond  time (%) = 0 (0)
Neigh time (%) = 0 (0)
Comm  time (%) = 0.000126123 (0.671976)
Outpt time (%) = 0 (0)
Other time (%) = 0.000221968 (1.18263)

thermo 500
thermo_style custom step temp etotal pe ke press vol c_stream c_allCorrected

restart 5000 restart.sol.try

timestep 0.005
run	20000
Step Temp TotEng PotEng KinEng Press Volume stream allCorre
1            0            0            0            0            0    5390.6732            0            0
Averages over the last 21 of 42 rows, steps 10500 to 20001:
Temp TotEng PotEng KinEng Press Volume stream allCorre
3.94799 177.556 171.755 5.80091 154.86 5390.67 3.94833 3.94799
Loop time of 556.557 on 1 procs for 20000 steps with 4125 atoms

Pair  time (%) = 350.612 (62.9967)
Bond  time (%) = 0.00541711 (0.000973325)
Neigh time (%) = 193.452 (34.7588)
Comm  time (%) = 7.34983 (1.32059)
Outpt time (%) = 0.0356553 (0.0064064)
Other time (%) = 5.10147 (0.916612)
